<?xml version="1.0" encoding="UTF-8"?>

<!-- generated on 2022-08-15 10:29:04 by Eclipse SUMO netedit Version 1.14.1
<configuration xmlns:xsi="http://www.w3.org/2001/XMLSchema-instance" xsi:noNamespaceSchemaLocation="http://sumo.dlr.de/xsd/netconvertConfiguration.xsd">

    <input>
        <sumo-net-file value="E:\work\osm\map.net.xml"/>
    </input>

    <output>
        <output-file value="E:\work\osm\map.net.xml"/>
    </output>

    <processing>
        <geometry.min-radius.fix.railways value="false"/>
        <geometry.max-grade.fix value="false"/>
        <offset.disable-normalization value="true"/>
        <lefthand value="false"/>
    </processing>

    <junctions>
        <no-turnarounds value="true"/>
        <junctions.corner-detail value="5"/>
        <junctions.limit-turn-speed value="5.5"/>
        <rectangular-lane-cut value="false"/>
    </junctions>

    <pedestrian>
        <walkingareas value="false"/>
    </pedestrian>

</configuration>
-->

<net version="1.9" junctionCornerDetail="5" limitTurnSpeed="5.50" xmlns:xsi="http://www.w3.org/2001/XMLSchema-instance" xsi:noNamespaceSchemaLocation="http://sumo.dlr.de/xsd/net_file.xsd">

    <location netOffset="-447863.23,-4395270.05" convBoundary="0.00,0.00,13664.69,4287.37" origBoundary="116.382734,39.706226,116.550961,39.760260" projParameter="+proj=utm +zone=50 +ellps=WGS84 +datum=WGS84 +units=m +no_defs"/>

    <type id="highway.bridleway" priority="1" numLanes="1" speed="2.78" allow="pedestrian" oneway="1" width="2.00"/>
    <type id="highway.bus_guideway" priority="1" numLanes="1" speed="27.78" allow="bus" oneway="1"/>
    <type id="highway.cycleway" priority="1" numLanes="1" speed="5.56" allow="bicycle" oneway="0" width="1.00"/>
    <type id="highway.footway" priority="1" numLanes="1" speed="2.78" allow="pedestrian" oneway="1" width="2.00"/>
    <type id="highway.ford" priority="1" numLanes="1" speed="2.78" allow="army" oneway="0"/>
    <type id="highway.living_street" priority="2" numLanes="1" speed="2.78" disallow="tram rail_urban rail rail_electric rail_fast ship" oneway="0"/>
    <type id="highway.motorway" priority="14" numLanes="2" speed="39.44" allow="private emergency authority army vip passenger hov taxi bus coach delivery truck trailer motorcycle evehicle custom1 custom2" oneway="1"/>
    <type id="highway.motorway_link" priority="9" numLanes="1" speed="22.22" allow="private emergency authority army vip passenger hov taxi bus coach delivery truck trailer motorcycle evehicle custom1 custom2" oneway="1"/>
    <type id="highway.path" priority="1" numLanes="1" speed="5.56" allow="pedestrian bicycle" oneway="0" width="2.00"/>
    <type id="highway.pedestrian" priority="1" numLanes="1" speed="2.78" allow="pedestrian" oneway="1" width="2.00"/>
    <type id="highway.primary" priority="12" numLanes="2" speed="27.78" disallow="tram rail_urban rail rail_electric rail_fast ship" oneway="0"/>
    <type id="highway.primary_link" priority="7" numLanes="1" speed="22.22" disallow="tram rail_urban rail rail_electric rail_fast ship" oneway="0"/>
    <type id="highway.raceway" priority="15" numLanes="2" speed="83.33" allow="vip" oneway="0"/>
    <type id="highway.residential" priority="3" numLanes="1" speed="13.89" disallow="tram rail_urban rail rail_electric rail_fast ship" oneway="0"/>
    <type id="highway.secondary" priority="11" numLanes="1" speed="27.78" disallow="tram rail_urban rail rail_electric rail_fast ship" oneway="0"/>
    <type id="highway.secondary_link" priority="6" numLanes="1" speed="22.22" disallow="tram rail_urban rail rail_electric rail_fast ship" oneway="0"/>
    <type id="highway.service" priority="1" numLanes="1" speed="5.56" allow="pedestrian delivery bicycle" oneway="0"/>
    <type id="highway.stairs" priority="1" numLanes="1" speed="1.39" allow="pedestrian" oneway="1" width="2.00"/>
    <type id="highway.step" priority="1" numLanes="1" speed="1.39" allow="pedestrian" oneway="1" width="2.00"/>
    <type id="highway.steps" priority="1" numLanes="1" speed="1.39" allow="pedestrian" oneway="1" width="2.00"/>
    <type id="highway.tertiary" priority="10" numLanes="1" speed="22.22" disallow="tram rail_urban rail rail_electric rail_fast ship" oneway="0"/>
    <type id="highway.tertiary_link" priority="5" numLanes="1" speed="22.22" disallow="tram rail_urban rail rail_electric rail_fast ship" oneway="0"/>
    <type id="highway.track" priority="1" numLanes="1" speed="5.56" allow="pedestrian motorcycle moped bicycle" oneway="0"/>
    <type id="highway.trunk" priority="13" numLanes="2" speed="27.78" disallow="pedestrian bicycle tram rail_urban rail rail_electric rail_fast ship" oneway="0"/>
    <type id="highway.trunk_link" priority="8" numLanes="1" speed="22.22" disallow="pedestrian bicycle tram rail_urban rail rail_electric rail_fast ship" oneway="0"/>
    <type id="highway.unclassified" priority="4" numLanes="1" speed="13.89" disallow="tram rail_urban rail rail_electric rail_fast ship" oneway="0"/>
    <type id="highway.unsurfaced" priority="1" numLanes="1" speed="8.33" disallow="tram rail_urban rail rail_electric rail_fast ship" oneway="0"/>
    <type id="railway.highspeed" priority="21" numLanes="1" speed="69.44" allow="rail_fast" oneway="1"/>
    <type id="railway.light_rail" priority="19" numLanes="1" speed="27.78" allow="rail_urban" oneway="1"/>
    <type id="railway.preserved" priority="16" numLanes="1" speed="27.78" allow="rail" oneway="1"/>
    <type id="railway.rail" priority="20" numLanes="1" speed="44.44" allow="rail" oneway="1"/>
    <type id="railway.subway" priority="18" numLanes="1" speed="27.78" allow="rail_urban" oneway="1"/>
    <type id="railway.tram" priority="17" numLanes="1" speed="13.89" allow="tram" oneway="1"/>

    <edge id=":2207731881_0" function="internal">
        <lane id=":2207731881_0_0" index="0" disallow="tram rail_urban rail rail_electric rail_fast ship" speed="27.78" length="0.25" shape="10587.16,3219.09 10587.20,3218.83"/>
    </edge>
    <edge id=":2207731969_0" function="internal">
        <lane id=":2207731969_0_0" index="0" disallow="tram rail_urban rail rail_electric rail_fast ship" speed="27.78" length="0.24" shape="12679.53,4265.13 12679.83,4265.13"/>
        <lane id=":2207731969_0_1" index="1" disallow="tram rail_urban rail rail_electric rail_fast ship" speed="27.78" length="0.24" shape="12679.57,4268.33 12679.76,4268.33"/>
    </edge>
    <edge id=":2462704753_0" function="internal">
        <lane id=":2462704753_0_0" index="0" disallow="tram rail_urban rail rail_electric rail_fast ship" speed="6.17" length="9.05" shape="10604.24,3339.61 10601.72,3339.24 10599.82,3339.81 10598.54,3341.32 10597.88,3343.78"/>
    </edge>
    <edge id=":2462704753_1" function="internal">
        <lane id=":2462704753_1_0" index="0" disallow="tram rail_urban rail rail_electric rail_fast ship" speed="18.05" length="12.00" shape="10604.24,3339.61 10592.61,3336.64"/>
    </edge>
    <edge id=":2462704753_2" function="internal">
        <lane id=":2462704753_2_0" index="0" disallow="tram rail_urban rail rail_electric rail_fast ship" speed="3.65" length="4.67" shape="10604.24,3339.61 10603.32,3338.50 10603.16,3337.62 10603.77,3336.97 10605.15,3336.55"/>
    </edge>
    <edge id=":2462704753_3" function="internal">
        <lane id=":2462704753_3_0" index="0" disallow="tram rail_urban rail rail_electric rail_fast ship" speed="7.49" length="10.62" shape="10599.63,3328.63 10599.72,3331.40 10600.68,3333.64 10602.49,3335.36 10605.15,3336.55"/>
    </edge>
    <edge id=":2462704753_4" function="internal">
        <lane id=":2462704753_4_0" index="0" disallow="tram rail_urban rail rail_electric rail_fast ship" speed="25.00" length="15.25" shape="10599.63,3328.63 10597.88,3343.78"/>
    </edge>
    <edge id=":2462704753_5" function="internal">
        <lane id=":2462704753_5_0" index="0" disallow="tram rail_urban rail rail_electric rail_fast ship" speed="7.23" length="12.24" shape="10599.63,3328.63 10598.81,3332.61 10597.36,3335.27 10595.30,3336.62 10592.61,3336.64"/>
    </edge>
    <edge id=":2462704753_6" function="internal">
        <lane id=":2462704753_6_0" index="0" disallow="tram rail_urban rail rail_electric rail_fast ship" speed="18.05" length="12.30" shape="10593.51,3332.58 10605.15,3336.55"/>
    </edge>
    <edge id=":2462704753_7" function="internal">
        <lane id=":2462704753_7_0" index="0" disallow="tram rail_urban rail rail_electric rail_fast ship" speed="8.46" length="12.98" shape="10593.51,3332.58 10595.84,3334.06 10597.34,3336.43 10598.02,3339.66 10597.88,3343.78"/>
    </edge>
    <edge id=":2462704753_8" function="internal">
        <lane id=":2462704753_8_0" index="0" disallow="tram rail_urban rail rail_electric rail_fast ship" speed="4.08" length="6.08" shape="10593.51,3332.58 10594.81,3333.93 10595.09,3335.06 10594.36,3335.97 10592.61,3336.64"/>
    </edge>
    <edge id=":2462704754_0" function="internal">
        <lane id=":2462704754_0_0" index="0" disallow="tram rail_urban rail rail_electric rail_fast ship" speed="22.22" length="10.44" shape="10559.26,3329.60 10556.29,3328.95 10554.18,3328.41 10552.10,3327.75 10549.23,3326.74"/>
    </edge>
    <edge id=":2462704754_1" function="internal">
        <lane id=":2462704754_1_0" index="0" disallow="tram rail_urban rail rail_electric rail_fast ship" speed="6.37" length="8.15" shape="10559.26,3329.60 10557.14,3328.84 10555.72,3327.61 10555.00,3325.91 10554.99,3323.74"/>
    </edge>
    <edge id=":2462704754_2" function="internal">
        <lane id=":2462704754_2_0" index="0" disallow="tram rail_urban rail rail_electric rail_fast ship" speed="6.79" length="8.78" shape="10553.36,3333.52 10553.46,3331.23 10552.80,3329.34 10551.39,3327.84 10549.23,3326.74"/>
    </edge>
    <edge id=":2462704754_3" function="internal">
        <lane id=":2462704754_3_0" index="0" disallow="tram rail_urban rail rail_electric rail_fast ship" speed="25.00" length="9.91" shape="10553.36,3333.52 10554.99,3323.74"/>
    </edge>
    <edge id=":2462704759_0" function="internal">
        <lane id=":2462704759_0_0" index="0" disallow="tram rail_urban rail rail_electric rail_fast ship" speed="27.78" length="0.30" shape="10597.28,3219.27 10597.24,3219.57"/>
    </edge>
    <edge id=":2462704774_0" function="internal">
        <lane id=":2462704774_0_0" index="0" disallow="tram rail_urban rail rail_electric rail_fast ship" speed="27.78" length="20.54" shape="10633.19,2983.14 10632.95,2987.73 10633.07,2993.38 10633.36,2999.04 10633.58,3003.66"/>
    </edge>
    <edge id=":2462704774_1" function="internal">
        <lane id=":2462704774_1_0" index="0" disallow="tram rail_urban rail rail_electric rail_fast ship" speed="27.78" length="20.54" shape="10633.19,2983.14 10630.13,3003.45"/>
    </edge>
    <edge id=":2503838340_0" function="internal">
        <lane id=":2503838340_0_0" index="0" disallow="tram rail_urban rail rail_electric rail_fast ship" speed="27.78" length="50.84" shape="8671.14,3229.97 8624.70,3209.30"/>
        <lane id=":2503838340_0_1" index="1" disallow="tram rail_urban rail rail_electric rail_fast ship" speed="27.78" length="50.84" shape="8672.46,3227.05 8626.01,3206.38"/>
    </edge>
    <edge id=":2503838340_2" function="internal">
        <lane id=":2503838340_2_0" index="0" allow="private emergency authority army vip passenger hov taxi bus coach delivery truck trailer motorcycle evehicle custom1 custom2" speed="25.00" length="50.83" shape="8672.46,3227.05 8627.55,3203.26"/>
    </edge>
    <edge id=":2730555277_0" function="internal">
        <lane id=":2730555277_0_0" index="0" disallow="tram rail_urban rail rail_electric rail_fast ship" speed="27.78" length="0.30" shape="12688.75,4265.33 12689.05,4265.33"/>
        <lane id=":2730555277_0_1" index="1" disallow="tram rail_urban rail rail_electric rail_fast ship" speed="27.78" length="0.30" shape="12688.69,4268.53 12688.99,4268.53"/>
    </edge>
    <edge id=":320526086_0" function="internal">
        <lane id=":320526086_0_0" index="0" allow="private emergency authority army vip passenger hov taxi bus coach delivery truck trailer motorcycle evehicle custom1 custom2" speed="39.44" length="0.24" shape="8886.98,3310.47 8886.70,3310.35"/>
        <lane id=":320526086_0_1" index="1" allow="private emergency authority army vip passenger hov taxi bus coach delivery truck trailer motorcycle evehicle custom1 custom2" speed="39.44" length="0.24" shape="8888.13,3307.48 8887.96,3307.41"/>
    </edge>
    <edge id=":320526238_0" function="internal">
        <lane id=":320526238_0_0" index="0" allow="private emergency authority army vip passenger hov taxi bus coach delivery truck trailer motorcycle evehicle custom1 custom2" speed="39.44" length="0.24" shape="8890.66,3296.73 8890.82,3296.80"/>
        <lane id=":320526238_0_1" index="1" allow="private emergency authority army vip passenger hov taxi bus coach delivery truck trailer motorcycle evehicle custom1 custom2" speed="39.44" length="0.24" shape="8889.40,3299.68 8889.69,3299.79"/>
    </edge>
    <edge id=":3242165954_0" function="internal">
        <lane id=":3242165954_0_0" index="0" disallow="tram rail_urban rail rail_electric rail_fast ship" speed="6.32" length="9.04" shape="8506.30,1369.55 8505.28,1371.85 8505.29,1373.86 8506.32,1375.58 8508.38,1377.02"/>
    </edge>
    <edge id=":3242165954_1" function="internal">
        <lane id=":3242165954_1_0" index="0" disallow="tram rail_urban rail rail_electric rail_fast ship" speed="13.89" length="11.39" shape="8506.30,1369.55 8504.62,1372.26 8503.37,1374.43 8502.21,1376.66 8500.84,1379.53"/>
    </edge>
    <edge id=":3242165954_2" function="internal">
        <lane id=":3242165954_2_0" index="0" disallow="tram rail_urban rail rail_electric rail_fast ship" speed="3.65" length="1.44" shape="8506.30,1369.55 8504.98,1370.14"/>
    </edge>
    <edge id=":3242165954_6" function="internal">
        <lane id=":3242165954_6_0" index="0" disallow="tram rail_urban rail rail_electric rail_fast ship" speed="3.65" length="3.23" shape="8504.98,1370.14 8504.09,1370.06 8503.63,1369.29 8503.58,1367.85"/>
    </edge>
    <edge id=":3242165954_3" function="internal">
        <lane id=":3242165954_3_0" index="0" disallow="tram rail_urban rail rail_electric rail_fast ship" speed="13.89" length="11.77" shape="8497.94,1378.17 8499.35,1375.25 8500.56,1372.90 8501.88,1370.62 8503.58,1367.85"/>
    </edge>
    <edge id=":3242165954_4" function="internal">
        <lane id=":3242165954_4_0" index="0" disallow="tram rail_urban rail rail_electric rail_fast ship" speed="7.29" length="2.56" shape="8497.94,1378.17 8499.51,1376.15"/>
    </edge>
    <edge id=":3242165954_5" function="internal">
        <lane id=":3242165954_5_0" index="0" disallow="tram rail_urban rail rail_electric rail_fast ship" speed="3.65" length="1.44" shape="8497.94,1378.17 8499.17,1377.43"/>
    </edge>
    <edge id=":3242165954_7" function="internal">
        <lane id=":3242165954_7_0" index="0" disallow="tram rail_urban rail rail_electric rail_fast ship" speed="7.29" length="9.32" shape="8499.51,1376.15 8501.77,1375.29 8504.73,1375.58 8508.38,1377.02"/>
    </edge>
    <edge id=":3242165954_8" function="internal">
        <lane id=":3242165954_8_0" index="0" disallow="tram rail_urban rail rail_electric rail_fast ship" speed="3.65" length="3.23" shape="8499.17,1377.43 8500.07,1377.40 8500.62,1378.11 8500.84,1379.53"/>
    </edge>
    <edge id=":3242165955_0" function="internal">
        <lane id=":3242165955_0_0" index="0" disallow="tram rail_urban rail rail_electric rail_fast ship" speed="6.61" length="8.53" shape="8500.18,1393.30 8497.89,1392.73 8495.92,1392.95 8494.26,1393.96 8492.92,1395.77"/>
    </edge>
    <edge id=":3242165955_1" function="internal">
        <lane id=":3242165955_1_0" index="0" disallow="tram rail_urban rail rail_electric rail_fast ship" speed="7.02" length="11.17" shape="8500.18,1393.30 8496.88,1391.62 8494.85,1389.71 8494.10,1387.58 8494.63,1385.22"/>
    </edge>
    <edge id=":3242165955_2" function="internal">
        <lane id=":3242165955_2_0" index="0" disallow="tram rail_urban rail rail_electric rail_fast ship" speed="13.89" length="10.27" shape="8497.52,1386.58 8492.92,1395.77"/>
    </edge>
    <edge id=":3242165955_3" function="internal">
        <lane id=":3242165955_3_0" index="0" disallow="tram rail_urban rail rail_electric rail_fast ship" speed="3.65" length="4.67" shape="8497.52,1386.58 8496.29,1387.33 8495.39,1387.35 8494.84,1386.65 8494.63,1385.22"/>
    </edge>
    <edge id=":3242165955_4" function="internal">
        <lane id=":3242165955_4_0" index="0" disallow="tram rail_urban rail rail_electric rail_fast ship" speed="13.89" length="10.10" shape="8490.10,1394.25 8494.63,1385.22"/>
    </edge>
    <edge id=":3242165955_5" function="internal">
        <lane id=":3242165955_5_0" index="0" disallow="tram rail_urban rail rail_electric rail_fast ship" speed="3.65" length="4.67" shape="8490.10,1394.25 8491.38,1393.57 8492.27,1393.60 8492.79,1394.33 8492.92,1395.77"/>
    </edge>
    <edge id=":3242165958_0" function="internal">
        <lane id=":3242165958_0_0" index="0" disallow="tram rail_urban rail rail_electric rail_fast ship" speed="6.73" length="9.49" shape="8745.87,1503.29 8743.32,1502.58 8741.15,1502.82 8739.37,1503.99 8737.98,1506.10"/>
    </edge>
    <edge id=":3242165958_1" function="internal">
        <lane id=":3242165958_1_0" index="0" disallow="tram rail_urban rail rail_electric rail_fast ship" speed="27.78" length="14.79" shape="8745.87,1503.29 8732.33,1497.34"/>
    </edge>
    <edge id=":3242165958_2" function="internal">
        <lane id=":3242165958_2_0" index="0" disallow="tram rail_urban rail rail_electric rail_fast ship" speed="6.98" length="12.11" shape="8745.87,1503.29 8742.40,1501.37 8740.45,1499.22 8740.02,1496.84 8741.11,1494.24"/>
    </edge>
    <edge id=":3242165958_3" function="internal">
        <lane id=":3242165958_3_0" index="0" disallow="tram rail_urban rail rail_electric rail_fast ship" speed="13.89" length="11.62" shape="8743.75,1496.04 8741.96,1498.72 8740.60,1500.92 8739.38,1503.19 8737.98,1506.10"/>
    </edge>
    <edge id=":3242165958_4" function="internal">
        <lane id=":3242165958_4_0" index="0" disallow="tram rail_urban rail rail_electric rail_fast ship" speed="8.08" length="12.57" shape="8743.75,1496.04 8741.78,1497.97 8739.22,1498.83 8736.07,1498.62 8732.33,1497.34"/>
    </edge>
    <edge id=":3242165958_5" function="internal">
        <lane id=":3242165958_5_0" index="0" disallow="tram rail_urban rail rail_electric rail_fast ship" speed="3.65" length="4.67" shape="8743.75,1496.04 8742.41,1496.58 8741.53,1496.46 8741.09,1495.68 8741.11,1494.24"/>
    </edge>
    <edge id=":3242165958_6" function="internal">
        <lane id=":3242165958_6_0" index="0" disallow="tram rail_urban rail rail_electric rail_fast ship" speed="6.48" length="9.03" shape="8735.08,1504.75 8735.80,1502.37 8735.58,1500.35 8734.42,1498.67 8732.33,1497.34"/>
    </edge>
    <edge id=":3242165958_7" function="internal">
        <lane id=":3242165958_7_0" index="0" disallow="tram rail_urban rail rail_electric rail_fast ship" speed="13.89" length="12.13" shape="8735.08,1504.75 8736.52,1501.77 8737.83,1499.34 8739.27,1496.99 8741.11,1494.24"/>
    </edge>
    <edge id=":3242165958_8" function="internal">
        <lane id=":3242165958_8_0" index="0" disallow="tram rail_urban rail rail_electric rail_fast ship" speed="3.65" length="4.67" shape="8735.08,1504.75 8736.31,1504.00 8737.20,1503.97 8737.76,1504.67 8737.98,1506.10"/>
    </edge>
    <edge id=":3242166262_0" function="internal">
        <lane id=":3242166262_0_0" index="0" disallow="tram rail_urban rail rail_electric rail_fast ship" speed="6.69" length="9.23" shape="8344.81,1684.46 8342.38,1683.63 8340.26,1683.72 8338.44,1684.73 8336.93,1686.67"/>
    </edge>
    <edge id=":3242166262_1" function="internal">
        <lane id=":3242166262_1_0" index="0" disallow="tram rail_urban rail rail_electric rail_fast ship" speed="7.95" length="14.30" shape="8344.81,1684.46 8341.58,1682.21 8339.87,1679.49 8339.69,1676.28 8341.04,1672.58"/>
    </edge>
    <edge id=":3242166262_2" function="internal">
        <lane id=":3242166262_2_0" index="0" disallow="tram rail_urban rail rail_electric rail_fast ship" speed="3.65" length="4.67" shape="8344.81,1684.46 8344.09,1683.20 8344.09,1682.31 8344.81,1681.77 8346.24,1681.60"/>
    </edge>
    <edge id=":3242166262_3" function="internal">
        <lane id=":3242166262_3_0" index="0" disallow="tram rail_urban rail rail_electric rail_fast ship" speed="6.45" length="9.03" shape="8343.86,1674.09 8343.01,1676.43 8343.12,1678.46 8344.20,1680.18 8346.24,1681.60"/>
    </edge>
    <edge id=":3242166262_4" function="internal">
        <lane id=":3242166262_4_0" index="0" disallow="tram rail_urban rail rail_electric rail_fast ship" speed="13.89" length="14.37" shape="8343.86,1674.09 8336.93,1686.67"/>
    </edge>
    <edge id=":3242166262_5" function="internal">
        <lane id=":3242166262_5_0" index="0" disallow="tram rail_urban rail rail_electric rail_fast ship" speed="3.65" length="4.67" shape="8343.86,1674.09 8342.59,1674.77 8341.69,1674.75 8341.18,1674.02 8341.04,1672.58"/>
    </edge>
    <edge id=":3242166262_6" function="internal">
        <lane id=":3242166262_6_0" index="0" disallow="tram rail_urban rail rail_electric rail_fast ship" speed="13.89" length="14.29" shape="8334.14,1685.09 8341.04,1672.58"/>
    </edge>
    <edge id=":3242166262_7" function="internal">
        <lane id=":3242166262_7_0" index="0" disallow="tram rail_urban rail rail_electric rail_fast ship" speed="8.15" length="14.20" shape="8334.14,1685.09 8336.48,1682.08 8339.28,1680.50 8342.53,1680.33 8346.24,1681.60"/>
    </edge>
    <edge id=":3242166262_8" function="internal">
        <lane id=":3242166262_8_0" index="0" disallow="tram rail_urban rail rail_electric rail_fast ship" speed="3.65" length="4.67" shape="8334.14,1685.09 8335.43,1684.44 8336.33,1684.49 8336.82,1685.23 8336.93,1686.67"/>
    </edge>
    <edge id=":3242166264_0" function="internal">
        <lane id=":3242166264_0_0" index="0" disallow="tram rail_urban rail rail_electric rail_fast ship" speed="27.78" length="12.98" shape="9216.18,1698.94 9203.88,1694.78"/>
    </edge>
    <edge id=":3242166264_1" function="internal">
        <lane id=":3242166264_1_0" index="0" disallow="tram rail_urban rail rail_electric rail_fast ship" speed="6.59" length="8.49" shape="9216.18,1698.94 9214.37,1698.01 9213.23,1696.55 9212.76,1694.55 9212.96,1692.01"/>
    </edge>
    <edge id=":3242166264_2" function="internal">
        <lane id=":3242166264_2_0" index="0" disallow="tram rail_urban rail rail_electric rail_fast ship" speed="6.98" length="9.18" shape="9207.80,1702.13 9207.94,1699.59 9207.33,1697.52 9205.98,1695.91 9203.88,1694.78"/>
    </edge>
    <edge id=":3242166264_3" function="internal">
        <lane id=":3242166264_3_0" index="0" disallow="tram rail_urban rail rail_electric rail_fast ship" speed="27.78" length="10.89" shape="9207.80,1702.13 9209.81,1691.41"/>
        <lane id=":3242166264_3_1" index="1" disallow="tram rail_urban rail rail_electric rail_fast ship" speed="27.78" length="10.89" shape="9210.95,1702.71 9212.96,1692.01"/>
    </edge>
    <edge id=":3242166265_0" function="internal">
        <lane id=":3242166265_0_0" index="0" disallow="tram rail_urban rail rail_electric rail_fast ship" speed="6.26" length="9.05" shape="9237.90,1707.10 9235.41,1706.69 9233.48,1707.21 9232.11,1708.66 9231.30,1711.05"/>
    </edge>
    <edge id=":3242166265_1" function="internal">
        <lane id=":3242166265_1_0" index="0" disallow="tram rail_urban rail rail_electric rail_fast ship" speed="27.78" length="13.67" shape="9237.90,1707.10 9234.53,1706.00 9231.42,1704.92 9228.34,1703.75 9225.06,1702.41"/>
    </edge>
    <edge id=":3242166265_2" function="internal">
        <lane id=":3242166265_2_0" index="0" disallow="tram rail_urban rail rail_electric rail_fast ship" speed="27.78" length="12.31" shape="9233.61,1698.97 9231.30,1711.05"/>
        <lane id=":3242166265_2_1" index="1" disallow="tram rail_urban rail rail_electric rail_fast ship" speed="27.78" length="12.31" shape="9230.47,1698.36 9228.15,1710.46"/>
    </edge>
    <edge id=":3242166265_4" function="internal">
        <lane id=":3242166265_4_0" index="0" disallow="tram rail_urban rail rail_electric rail_fast ship" speed="5.81" length="8.08" shape="9230.47,1698.36 9229.71,1700.81 9228.55,1702.30 9227.00,1702.83 9225.06,1702.41"/>
    </edge>
    <edge id=":3242166272_0" function="internal">
        <lane id=":3242166272_0_0" index="0" disallow="tram rail_urban rail rail_electric rail_fast ship" speed="6.37" length="9.04" shape="8897.99,1955.68 8895.62,1954.89 8893.61,1955.08 8891.96,1956.24 8890.67,1958.38"/>
    </edge>
    <edge id=":3242166272_1" function="internal">
        <lane id=":3242166272_1_0" index="0" disallow="tram rail_urban rail rail_electric rail_fast ship" speed="22.22" length="15.07" shape="8897.99,1955.68 8884.44,1949.10"/>
    </edge>
    <edge id=":3242166272_2" function="internal">
        <lane id=":3242166272_2_0" index="0" disallow="tram rail_urban rail rail_electric rail_fast ship" speed="8.76" length="3.97" shape="8897.99,1955.68 8894.73,1953.42"/>
    </edge>
    <edge id=":3242166272_3" function="internal">
        <lane id=":3242166272_3_0" index="0" disallow="tram rail_urban rail rail_electric rail_fast ship" speed="3.65" length="1.44" shape="8897.99,1955.68 8897.28,1954.42"/>
    </edge>
    <edge id=":3242166272_16" function="internal">
        <lane id=":3242166272_16_0" index="0" disallow="tram rail_urban rail rail_electric rail_fast ship" speed="8.76" length="11.04" shape="8894.73,1953.42 8892.78,1950.57 8892.13,1947.13 8892.80,1943.10"/>
    </edge>
    <edge id=":3242166272_17" function="internal">
        <lane id=":3242166272_17_0" index="0" disallow="tram rail_urban rail rail_electric rail_fast ship" speed="3.65" length="3.23" shape="8897.28,1954.42 8897.28,1953.53 8897.99,1952.99 8899.43,1952.81"/>
    </edge>
    <edge id=":3242166272_4" function="internal">
        <lane id=":3242166272_4_0" index="0" disallow="tram rail_urban rail rail_electric rail_fast ship" speed="7.40" length="10.45" shape="8895.86,1944.04 8895.39,1946.86 8895.82,1949.26 8897.17,1951.25 8899.43,1952.81"/>
    </edge>
    <edge id=":3242166272_5" function="internal">
        <lane id=":3242166272_5_0" index="0" disallow="tram rail_urban rail rail_electric rail_fast ship" speed="13.89" length="15.26" shape="8895.86,1944.04 8894.71,1947.65 8893.45,1951.27 8892.10,1954.87 8890.67,1958.38"/>
    </edge>
    <edge id=":3242166272_6" function="internal">
        <lane id=":3242166272_6_0" index="0" disallow="tram rail_urban rail rail_electric rail_fast ship" speed="7.77" length="14.77" shape="8895.86,1944.04 8894.10,1947.78 8891.61,1949.87 8888.39,1950.31 8884.44,1949.10"/>
    </edge>
    <edge id=":3242166272_7" function="internal">
        <lane id=":3242166272_7_0" index="0" disallow="tram rail_urban rail rail_electric rail_fast ship" speed="3.65" length="4.67" shape="8895.86,1944.04 8894.74,1944.95 8893.86,1945.10 8893.21,1944.48 8892.80,1943.10"/>
    </edge>
    <edge id=":3242166272_8" function="internal">
        <lane id=":3242166272_8_0" index="0" disallow="tram rail_urban rail rail_electric rail_fast ship" speed="6.22" length="9.05" shape="8885.80,1946.20 8888.22,1946.94 8890.19,1946.67 8891.72,1945.39 8892.80,1943.10"/>
    </edge>
    <edge id=":3242166272_9" function="internal">
        <lane id=":3242166272_9_0" index="0" disallow="tram rail_urban rail rail_electric rail_fast ship" speed="22.22" length="15.14" shape="8885.80,1946.20 8899.43,1952.81"/>
    </edge>
    <edge id=":3242166272_10" function="internal">
        <lane id=":3242166272_10_0" index="0" disallow="tram rail_urban rail rail_electric rail_fast ship" speed="8.29" length="4.37" shape="8885.80,1946.20 8889.24,1948.44 8889.39,1948.66"/>
    </edge>
    <edge id=":3242166272_11" function="internal">
        <lane id=":3242166272_11_0" index="0" disallow="tram rail_urban rail rail_electric rail_fast ship" speed="3.65" length="1.44" shape="8885.80,1946.20 8886.54,1947.44"/>
    </edge>
    <edge id=":3242166272_18" function="internal">
        <lane id=":3242166272_18_0" index="0" disallow="tram rail_urban rail rail_electric rail_fast ship" speed="8.29" length="10.45" shape="8889.39,1948.66 8891.19,1951.21 8891.67,1954.53 8890.67,1958.38"/>
    </edge>
    <edge id=":3242166272_19" function="internal">
        <lane id=":3242166272_19_0" index="0" disallow="tram rail_urban rail rail_electric rail_fast ship" speed="3.65" length="3.23" shape="8886.54,1947.44 8886.56,1948.33 8885.86,1948.89 8884.44,1949.10"/>
    </edge>
    <edge id=":3242166272_12" function="internal">
        <lane id=":3242166272_12_0" index="0" disallow="tram rail_urban rail rail_electric rail_fast ship" speed="6.85" length="9.82" shape="8887.72,1957.14 8888.37,1954.60 8888.04,1952.42 8886.73,1950.58 8884.44,1949.10"/>
    </edge>
    <edge id=":3242166272_13" function="internal">
        <lane id=":3242166272_13_0" index="0" disallow="tram rail_urban rail rail_electric rail_fast ship" speed="13.89" length="14.93" shape="8887.72,1957.14 8889.13,1953.67 8890.44,1950.18 8891.66,1946.66 8892.80,1943.10"/>
    </edge>
    <edge id=":3242166272_14" function="internal">
        <lane id=":3242166272_14_0" index="0" disallow="tram rail_urban rail rail_electric rail_fast ship" speed="7.89" length="14.44" shape="8887.72,1957.14 8889.78,1953.72 8892.42,1951.86 8895.64,1951.55 8899.43,1952.81"/>
    </edge>
    <edge id=":3242166272_15" function="internal">
        <lane id=":3242166272_15_0" index="0" disallow="tram rail_urban rail rail_electric rail_fast ship" speed="3.65" length="4.67" shape="8887.72,1957.14 8888.93,1956.34 8889.82,1956.28 8890.40,1956.96 8890.67,1958.38"/>
    </edge>
    <edge id=":3242166274_0" function="internal">